LTspice 24.0.12 for Windows
Circuit: * D:\WORKSPACE\Misc_Circuits\PPNand.asc
Start Time: Wed Apr 16 11:36:14 2025
solver = Normal
Maximum thread count: 16
tnom = 27
temp = 27
method = modified trap
c2: Increased Cpar to 1e-16
Limiting rise time of source v3 to 5
Limiting fall time of source v3 to 5
Limiting rise time of source v4 to 5
Limiting fall time of source v4 to 5
Direct Newton iteration for .op point succeeded.
Total elapsed time: 24.006 seconds.

